3
Properties=species:S:1:pos:R:3:forces_uncertainty:R:3:forces:R:3:F_lj:R:3 energy_uncertainty=0.006221848541648684 energy=-0.9743916502614107 E_lj=-0.9792880907149858 pbc="F F F"
O       -1.16954488      -0.00000000       0.00000000       0.01095547       0.00000000       0.00000000       1.74328636       0.00000000       0.00000000       1.75204659       0.00000000       0.00000000
C        0.00000000       0.00000000      -0.00000000       0.01030488       0.00000000       0.00000000      -1.63976171       0.00000000       0.00000000      -1.64800172       0.00000000       0.00000000
O        2.16954488       0.00000000       0.00000000       0.00065059       0.00000000       0.00000000      -0.10352465       0.00000000       0.00000000      -0.10404487       0.00000000       0.00000000
3
Properties=species:S:1:pos:R:3:forces_uncertainty:R:3:forces:R:3:F_lj:R:3 energy_uncertainty=0.00619385497395605 energy=-0.9700076318401718 E_lj=-0.9748820420504242 pbc="F F F"
O       -1.16954488      -0.00000000       0.00000000       0.01095547       0.00000000       0.00000000       1.74328636       0.00000000       0.00000000       1.75204659       0.00000000       0.00000000
C        0.00000000       0.00000000      -0.00000000       0.01039149       0.00000000       0.00000000      -1.65354324       0.00000000       0.00000000      -1.66185250       0.00000000       0.00000000
O        2.21499943       0.00000000       0.00000000       0.00056398       0.00000000       0.00000000      -0.08974312       0.00000000       0.00000000      -0.09019409       0.00000000       0.00000000
